Circuit: * C:\Users\bhargav Pandya\Desktop\Temp_MuE\Lund.asc

.OP point found by inspection.

Date: Wed Jan 27 14:42:22 2021
Total elapsed time: 0.198 seconds.

tnom = 27
temp = 27
method = modified trap
totiter = 3544
traniter = 3544
tranpoints = 1488
accept = 1133
rejected = 355
matrix size = 8
fillins = 5
solver = Normal
Matrix Compiler1: 572 bytes object code size  0.6/0.3/[0.1]
Matrix Compiler2: 656 bytes object code size  0.8/0.4/[0.2]

