Circuit: * C:\Users\bhargav Pandya\Desktop\Temp_MuE\MuE_Set_1.asc

.OP point found by inspection.

Date: Wed Jan 27 14:34:30 2021
Total elapsed time: 0.265 seconds.

tnom = 27
temp = 27
method = modified trap
totiter = 3572
traniter = 3572
tranpoints = 1400
accept = 1053
rejected = 347
matrix size = 13
fillins = 7
solver = Normal
Matrix Compiler1: 902 bytes object code size  1.0/0.7/[0.1]
Matrix Compiler2: 1.03 KB object code size  3.4/1.0/[0.3]

