Circuit: * C:\Users\bhargav Pandya\Desktop\Temp_MuE\Q1.asc

Direct Newton iteration for .op point succeeded.

Date: Wed Jan 27 12:53:57 2021
Total elapsed time: 0.285 seconds.

tnom = 27
temp = 27
method = trap
totiter = 4
traniter = 0
tranpoints = 0
accept = 0
rejected = 0
matrix size = 5
fillins = 0
solver = Normal
Matrix Compiler1:       7 opcodes
Matrix Compiler2: 301 bytes object code size
