Circuit: * D:\Acads\Analog Electronics\Labs\Lab2\Bootstrap_Configuration_Waveform.asc

Direct Newton iteration for .op point succeeded.
Changing Tseed to 1e-009

Date: Wed Feb 03 23:48:04 2021
Total elapsed time: 0.113 seconds.

tnom = 27
temp = 27
method = modified trap
totiter = 2058
traniter = 2051
tranpoints = 1016
accept = 1015
rejected = 0
matrix size = 9
fillins = 0
solver = Normal
Matrix Compiler1: 412 bytes object code size  0.1/0.1/[0.1]
Matrix Compiler2: 661 bytes object code size  0.1/0.2/[0.1]

