Circuit: * D:\Acads\Analog Electronics\Labs\Lab2\Bootstrap_Configuration_Rin_Value, Av.asc

Direct Newton iteration for .op point succeeded.

Date: Wed Feb 03 23:35:01 2021
Total elapsed time: 0.075 seconds.

tnom = 27
temp = 27
method = trap
totiter = 7
traniter = 0
tranpoints = 0
accept = 0
rejected = 0
matrix size = 9
fillins = 0
solver = Normal
Matrix Compiler1:      24 opcodes
Matrix Compiler2: 661 bytes object code size
