Circuit: * D:\Acads\Analog Electronics\Labs\Lab2\Common_Emitter_Rin_Value, Av, Waveform.asc

Direct Newton iteration for .op point succeeded.
Changing Tseed to 1e-009
Changing Tseed to 1e-011
Changing Tseed to 1e-008

Date: Wed Feb 03 21:13:07 2021
Total elapsed time: 0.125 seconds.

tnom = 27
temp = 27
method = modified trap
totiter = 2060
traniter = 2053
tranpoints = 1014
accept = 1011
rejected = 0
matrix size = 8
fillins = 0
solver = Normal
Matrix Compiler1:      17 opcodes  0.1/[0.0]/0.1
Matrix Compiler2: 554 bytes object code size  0.1/0.1/[0.1]

