Circuit: * D:\Acads\Analog Electronics\Labs\Lab2\Darlington_Rout_Value.asc

Direct Newton iteration for .op point succeeded.

Date: Wed Feb 03 21:38:48 2021
Total elapsed time: 0.390 seconds.

tnom = 27
temp = 27
method = trap
totiter = 12
traniter = 0
tranpoints = 0
accept = 0
rejected = 0
matrix size = 9
fillins = 0
solver = Normal
Matrix Compiler1:      21 opcodes
Matrix Compiler2: 661 bytes object code size
