Circuit: * E:\BITS Pilani\3-2\AnE\Labs\Lab2.asc

Direct Newton iteration for .op point succeeded.
Changing Tseed to 1e-10
Changing Tseed to 1e-12
Changing Tseed to 1e-09
Heightened Def Con from 0.35385 