Circuit: * D:\Acads\Analog Electronics\Labs\Lab1\1a.asc

Direct Newton iteration for .op point succeeded.

Date: Thu Jan 21 13:17:53 2021
Total elapsed time: 0.070 seconds.

tnom = 27
temp = 27
method = trap
totiter = 7
traniter = 0
tranpoints = 0
accept = 0
rejected = 0
matrix size = 9
fillins = 0
solver = Normal
Matrix Compiler1:      23 opcodes
Matrix Compiler2: 667 bytes object code size
