Circuit: * D:\Acads\Analog Electronics\Labs\Lab1\4a.asc

Direct Newton iteration for .op point succeeded.

Date: Thu Jan 21 11:40:25 2021
Total elapsed time: 0.374 seconds.

tnom = 27
temp = 27
method = modified trap
totiter = 2053
traniter = 2046
tranpoints = 1018
accept = 1018
rejected = 0
matrix size = 9
fillins = 0
solver = Normal
Matrix Compiler1: 394 bytes object code size  0.1/0.1/[0.0]
Matrix Compiler2: 667 bytes object code size  0.1/0.1/[0.1]

