Circuit: * D:\Acads\Analog Electronics\Labs\Lab1\4b.asc

Direct Newton iteration for .op point succeeded.

Date: Wed Feb 03 22:25:08 2021
Total elapsed time: 0.122 seconds.

tnom = 27
temp = 27
method = modified trap
totiter = 2047
traniter = 2040
tranpoints = 1018
accept = 1018
rejected = 0
matrix size = 9
fillins = 0
solver = Normal
Matrix Compiler1: 394 bytes object code size  0.2/0.1/[0.1]
Matrix Compiler2: 667 bytes object code size  0.1/0.8/[0.1]

