Circuit: * D:\Acads\Analog Electronics\Labs\Lab1\Schematic - Copy.asc

Direct Newton iteration for .op point succeeded.
Changing Tseed to 4.88281e-019
Changing Tseed to 4.88281e-021
Changing Tseed to 4.88281e-018
Changing Tseed to 4.88281e-022
Changing Tseed to 4.88281e-017
Changing Tseed to 4.88281e-023
Heightened Def Con from 4.99999e-012 to 5e-012

Date: Thu Jan 21 02:59:21 2021
Total elapsed time: 75.002 seconds.

tnom = 27
temp = 27
method = modified trap
totiter = 15178737
traniter = 15178730
tranpoints = 3571454
accept = 2678586
rejected = 892863
matrix size = 9
fillins = 0
solver = Normal
Matrix Compiler1:      23 opcodes  0.1/[0.0]/0.1
Matrix Compiler2: 667 bytes object code size  0.1/0.1/[0.1]

