Circuit: * D:\Acads\Analog Electronics\Labs\Lab6\BandPassFilter.asc

Direct Newton iteration for .op point succeeded.

Date: Thu Mar 18 10:57:27 2021
Total elapsed time: 0.056 seconds.

tnom = 27
temp = 27
method = trap
totiter = 11
traniter = 0
tranpoints = 0
accept = 0
rejected = 0
matrix size = 40
fillins = 45
solver = Normal
Matrix Compiler1:     232 opcodes
Matrix Compiler2: 4.00 KB object code size
