Circuit: * D:\Acads\Analog Electronics\Labs\Lab6\Draft4.asc

Direct Newton iteration for .op point succeeded.

Date: Sat Mar 20 16:50:12 2021
Total elapsed time: 0.032 seconds.

tnom = 27
temp = 27
method = trap
totiter = 9
traniter = 0
tranpoints = 0
accept = 0
rejected = 0
matrix size = 9
fillins = 0
solver = Normal
Matrix Compiler1:      23 opcodes
Matrix Compiler2: 667 bytes object code size
