Circuit: * D:\Acads\Analog Electronics\Labs\Lab6\LowPassFilter.asc

Direct Newton iteration for .op point succeeded.

Date: Wed Mar 17 23:19:24 2021
Total elapsed time: 0.274 seconds.

tnom = 27
temp = 27
method = trap
totiter = 11
traniter = 0
tranpoints = 0
accept = 0
rejected = 0
matrix size = 40
fillins = 45
solver = Normal
Matrix Compiler1:     231 opcodes
Matrix Compiler2: 4.01 KB object code size
