Circuit: * C:\Users\bhargav Pandya\Desktop\LTspic\Draft1.asc

Direct Newton iteration for .op point succeeded.

Date: Fri Apr  3 18:15:37 2020
Total elapsed time: 47.275 seconds.

tnom = 27
temp = 27
method = modified trap
totiter = 7850703
traniter = 7850694
tranpoints = 3925348
accept = 2388551
rejected = 1536797
matrix size = 8
fillins = 0
solver = Normal
Matrix Compiler1: 326 bytes object code size  0.4/0.2/[0.1]
Matrix Compiler2: 560 bytes object code size  0.3/0.3/[0.1]

