Circuit: * Question 1 of assignment ( corresponding to thevenin equivalent)

Direct Newton iteration for .op point succeeded.

Date: Fri Apr  3 01:29:39 2020
Total elapsed time: 0.020 seconds.

tnom = 27
temp = 27
method = trap
totiter = 3
traniter = 0
tranpoints = 0
accept = 0
rejected = 0
matrix size = 9
fillins = 1
solver = Normal
Matrix Compiler1: 314 bytes object code size
Matrix Compiler2: 587 bytes object code size
