Circuit: *

Fatal Error: Previous analysis already found: .ac dec 50 10 10meg
