Circuit: * E:\BITS Pilani\3-2\AnE\Labs\simulations\CCCS.asc

Direct Newton iteration for .op point succeeded.

Date: Thu Apr 22 13:23:17 2021
Total elapsed time: 0.095 seconds.

tnom = 27
temp = 27
method = trap
totiter = 11
traniter = 0
tranpoints = 0
accept = 0
rejected = 0
matrix size = 39
fillins = 30
solver = Normal
Matrix Compiler1:     176 opcodes
Matrix Compiler2: 3.62 KB object code size
