Circuit: * D:\anu\ane\unsymmetrical.asc

Direct Newton iteration for .op point succeeded.

Date: Sat Mar 27 11:40:05 2021
Total elapsed time: 0.176 seconds.

tnom = 27
temp = 27
method = modified trap
totiter = 23719
traniter = 23711
tranpoints = 10723
accept = 10561
rejected = 162
matrix size = 14
fillins = 0
solver = Normal
Matrix Compiler1: 384 bytes object code size  0.1/0.1/[0.0]
Matrix Compiler2: off  [0.1]/0.1/0.1

