Circuit: * D:\Acads\Analog Electronics\Labs\Lab3\Adder.asc

Direct Newton iteration for .op point succeeded.

Date: Thu Feb 11 11:14:59 2021
Total elapsed time: 0.453 seconds.

tnom = 27
temp = 27
method = trap
totiter = 11
traniter = 0
tranpoints = 0
accept = 0
rejected = 0
matrix size = 40
fillins = 28
solver = Normal
Matrix Compiler1:     179 opcodes
Matrix Compiler2: 3.73 KB object code size
