Circuit: * D:\Acads\Analog Electronics\Labs\Lab3\Inverting.asc

Direct Newton iteration for .op point succeeded.

Date: Thu Feb 11 11:01:20 2021
Total elapsed time: 0.291 seconds.

tnom = 27
temp = 27
method = trap
totiter = 11
traniter = 0
tranpoints = 0
accept = 0
rejected = 0
matrix size = 38
fillins = 28
solver = Normal
Matrix Compiler1:     168 opcodes
Matrix Compiler2: 3.52 KB object code size
