Circuit: * D:\Acads\Analog Electronics\Labs\Lab3\Non-Inverting.asc

Direct Newton iteration for .op point succeeded.

Date: Thu Feb 11 11:09:55 2021
Total elapsed time: 0.263 seconds.

tnom = 27
temp = 27
method = trap
totiter = 11
traniter = 0
tranpoints = 0
accept = 0
rejected = 0
matrix size = 38
fillins = 28
solver = Normal
Matrix Compiler1:     170 opcodes
Matrix Compiler2: 3.54 KB object code size
